data_image0
_chemical_formula_structural       Al4H
_chemical_formula_sum              "Al4 H1"
_cell_length_a       4.102696125634243
_cell_length_b       4.1026961256342425
_cell_length_c       4.102696125634243
_cell_angle_alpha    90.0
_cell_angle_beta     90.0
_cell_angle_gamma    90.0

_space_group_name_H-M_alt    "P 1"
_space_group_IT_number       1

loop_
  _space_group_symop_operation_xyz
  'x, y, z'

loop_
  _atom_site_type_symbol
  _atom_site_label
  _atom_site_symmetry_multiplicity
  _atom_site_fract_x
  _atom_site_fract_y
  _atom_site_fract_z
  _atom_site_occupancy
  Al  Al1       1.0  0.0  0.0  0.0  1.0000
  Al  Al2       1.0  0.5  0.5  0.0  1.0000
  Al  Al3       1.0  0.0  0.5  0.5  1.0000
  Al  Al4       1.0  0.5  0.0  0.5  1.0000
  H   H1        1.0  0.5  0.5  0.5  1.0000

loop_
_atom_site_moment_label
_atom_site_moment_crystalaxis_x
_atom_site_moment_crystalaxis_y
_atom_site_moment_crystalaxis_z

Al1 0.0 0.0 -0.0
Al2 0.65971303915075 -0.0 -0.19539857676226
Al3 0.68151321323734 0.0 -0.18914818732454
Al4 0.0 -0.0 -0.0
H1 0.14436748022996 -0.0 -0.04139200769665
